 INFO
nunit      1    1    1
unit   cell
celltype   convcell
shape   parapipedal
 END_INFO
 DIM-GROUP
           3           1
 PRIMVEC
    4.3701718420   -0.0018293220   -0.0012581570
    2.3273993300    3.6989414330   -0.0015745760
    2.3274106030    1.2850673610    3.4687764500
 CONVVEC
    4.3701718420   -0.0018293220   -0.0012581570
    2.3273993300    3.6989414330   -0.0015745760
    2.3274106030    1.2850673610    3.4687764500
 PRIMCOORD
           2           1
 32      0.0418083330     0.0231788790     0.0161461670
 52      4.2811579280     2.3632850830     1.6440408700
 CONVCOORD
           2           1
 32      0.0418083330     0.0231788790     0.0161461670
 52      4.2811579280     2.3632850830     1.6440408700
 RECIP-PRIMVEC
    0.2287348622   -0.1439641718   -0.1001379853

    0.0000842852    0.2702519405   -0.1001759898

    0.0000830025    0.0000704579    0.2882042964

 RECIP-CONVVEC
    0.2287348622   -0.1439641718   -0.1001379853

    0.0000842852    0.2702519405   -0.1001759898

    0.0000830025    0.0000704579    0.2882042964

 WIGNER-SEITZ-PRIMCELL
           6
 -0.2184339E+01  0.1208524E+01  0.8408361E+00  -0.9999999E+00  0.4185926E-03  0.2878964E-03
 -0.2185080E+01  0.1207895E+01 -0.1734502E+01  -0.9999999E+00  0.4185926E-03  0.2878964E-03
 -0.2185080E+01  0.1207795E+01 -0.1734572E+01  -0.9999999E+00  0.4185926E-03  0.2878964E-03
 -0.2185833E+01 -0.1206695E+01 -0.8395780E+00  -0.9999999E+00  0.4185926E-03  0.2878964E-03
 -0.2185092E+01 -0.1206065E+01  0.1735760E+01  -0.9999999E+00  0.4185926E-03  0.2878964E-03
 -0.2185092E+01 -0.1205965E+01  0.1735830E+01  -0.9999999E+00  0.4185926E-03  0.2878964E-03
           6
 -0.2185069E+01 -0.1205979E+01  0.1735849E+01  -0.4832300E+00  0.3044248E+00  0.8208619E+00
  0.1415773E+00  0.7837242E-01  0.2629198E+01  -0.4832300E+00  0.3044248E+00  0.8208619E+00
  0.1423303E+00  0.2492862E+01  0.1734204E+01  -0.4832300E+00  0.3044248E+00  0.8208619E+00
  0.1423077E+00  0.2492876E+01  0.1734186E+01  -0.4832300E+00  0.3044248E+00  0.8208619E+00
 -0.2184339E+01  0.1208524E+01  0.8408361E+00  -0.4832300E+00  0.3044248E+00  0.8208619E+00
 -0.2185092E+01 -0.1205965E+01  0.1735830E+01  -0.4832300E+00  0.3044248E+00  0.8208619E+00
           6
 -0.2185833E+01 -0.1206695E+01 -0.8395780E+00  -0.5325570E+00 -0.8463941E+00  0.3602954E-03
 -0.1423303E+00 -0.2492862E+01 -0.1734204E+01  -0.5325570E+00 -0.8463941E+00  0.3602954E-03
 -0.1423077E+00 -0.2492876E+01 -0.1734186E+01  -0.5325570E+00 -0.8463941E+00  0.3602954E-03
 -0.1415660E+00 -0.2492246E+01  0.8411525E+00  -0.5325570E+00 -0.8463941E+00  0.3602954E-03
 -0.2185069E+01 -0.1206080E+01  0.1735779E+01  -0.5325570E+00 -0.8463941E+00  0.3602954E-03
 -0.2185092E+01 -0.1206065E+01  0.1735760E+01  -0.5325570E+00 -0.8463941E+00  0.3602954E-03
           6
  0.1415773E+00  0.7837242E-01  0.2629198E+01   0.2666714E-05 -0.5710193E+00  0.8209366E+00
 -0.2185069E+01 -0.1205979E+01  0.1735849E+01   0.2666714E-05 -0.5710193E+00  0.8209366E+00
 -0.2185069E+01 -0.1206080E+01  0.1735779E+01   0.2666714E-05 -0.5710193E+00  0.8209366E+00
 -0.1415660E+00 -0.2492246E+01  0.8411525E+00   0.2666714E-05 -0.5710193E+00  0.8209366E+00
  0.2185080E+01 -0.1207895E+01  0.1734502E+01   0.2666714E-05 -0.5710193E+00  0.8209366E+00
  0.2185080E+01 -0.1207795E+01  0.1734572E+01   0.2666714E-05 -0.5710193E+00  0.8209366E+00
           4
  0.1423077E+00  0.2492876E+01  0.1734186E+01  -0.4832529E+00  0.8754808E+00 -0.7485434E-04
  0.1415660E+00  0.2492246E+01 -0.8411525E+00  -0.4832529E+00  0.8754808E+00 -0.7485434E-04
 -0.2185080E+01  0.1207895E+01 -0.1734502E+01  -0.4832529E+00  0.8754808E+00 -0.7485434E-04
 -0.2184339E+01  0.1208524E+01  0.8408361E+00  -0.4832529E+00  0.8754808E+00 -0.7485434E-04
           6
  0.2185069E+01  0.1206080E+01 -0.1735779E+01  -0.2666707E-05  0.5710193E+00 -0.8209366E+00
  0.2185069E+01  0.1205979E+01 -0.1735849E+01  -0.2666707E-05  0.5710193E+00 -0.8209366E+00
 -0.1415773E+00 -0.7837242E-01 -0.2629198E+01  -0.2666707E-05  0.5710193E+00 -0.8209366E+00
 -0.2185080E+01  0.1207795E+01 -0.1734572E+01  -0.2666707E-05  0.5710193E+00 -0.8209366E+00
 -0.2185080E+01  0.1207895E+01 -0.1734502E+01  -0.2666707E-05  0.5710193E+00 -0.8209366E+00
  0.1415660E+00  0.2492246E+01 -0.8411525E+00  -0.2666707E-05  0.5710193E+00 -0.8209366E+00
           4
 -0.2185833E+01 -0.1206695E+01 -0.8395780E+00  -0.5325360E+00 -0.2940369E+00 -0.7936925E+00
 -0.2185080E+01  0.1207795E+01 -0.1734572E+01  -0.5325360E+00 -0.2940369E+00 -0.7936925E+00
 -0.1415773E+00 -0.7837242E-01 -0.2629198E+01  -0.5325360E+00 -0.2940369E+00 -0.7936925E+00
 -0.1423303E+00 -0.2492862E+01 -0.1734204E+01  -0.5325360E+00 -0.2940369E+00 -0.7936925E+00
           6
  0.1423077E+00  0.2492876E+01  0.1734186E+01   0.5325570E+00  0.8463941E+00 -0.3602955E-03
  0.1423303E+00  0.2492862E+01  0.1734204E+01   0.5325570E+00  0.8463941E+00 -0.3602955E-03
  0.2185833E+01  0.1206695E+01  0.8395780E+00   0.5325570E+00  0.8463941E+00 -0.3602955E-03
  0.2185092E+01  0.1206065E+01 -0.1735760E+01   0.5325570E+00  0.8463941E+00 -0.3602955E-03
  0.2185069E+01  0.1206080E+01 -0.1735779E+01   0.5325570E+00  0.8463941E+00 -0.3602955E-03
  0.1415660E+00  0.2492246E+01 -0.8411525E+00   0.5325570E+00  0.8463941E+00 -0.3602955E-03
           4
  0.2185080E+01 -0.1207795E+01  0.1734572E+01   0.5325360E+00  0.2940369E+00  0.7936925E+00
  0.2185833E+01  0.1206695E+01  0.8395780E+00   0.5325360E+00  0.2940369E+00  0.7936925E+00
  0.1423303E+00  0.2492862E+01  0.1734204E+01   0.5325360E+00  0.2940369E+00  0.7936925E+00
  0.1415773E+00  0.7837242E-01  0.2629198E+01   0.5325360E+00  0.2940369E+00  0.7936925E+00
           4
 -0.1415660E+00 -0.2492246E+01  0.8411525E+00   0.4832529E+00 -0.8754808E+00  0.7485434E-04
 -0.1423077E+00 -0.2492876E+01 -0.1734186E+01   0.4832529E+00 -0.8754808E+00  0.7485434E-04
  0.2184339E+01 -0.1208524E+01 -0.8408361E+00   0.4832529E+00 -0.8754808E+00  0.7485434E-04
  0.2185080E+01 -0.1207895E+01  0.1734502E+01   0.4832529E+00 -0.8754808E+00  0.7485434E-04
           6
 -0.1423303E+00 -0.2492862E+01 -0.1734204E+01   0.4832300E+00 -0.3044248E+00 -0.8208619E+00
 -0.1415773E+00 -0.7837242E-01 -0.2629198E+01   0.4832300E+00 -0.3044248E+00 -0.8208619E+00
  0.2185069E+01  0.1205979E+01 -0.1735849E+01   0.4832300E+00 -0.3044248E+00 -0.8208619E+00
  0.2185092E+01  0.1205965E+01 -0.1735830E+01   0.4832300E+00 -0.3044248E+00 -0.8208619E+00
  0.2184339E+01 -0.1208524E+01 -0.8408361E+00   0.4832300E+00 -0.3044248E+00 -0.8208619E+00
 -0.1423077E+00 -0.2492876E+01 -0.1734186E+01   0.4832300E+00 -0.3044248E+00 -0.8208619E+00
           6
  0.2185080E+01 -0.1207795E+01  0.1734572E+01   0.9999999E+00 -0.4185926E-03 -0.2878964E-03
  0.2185080E+01 -0.1207895E+01  0.1734502E+01   0.9999999E+00 -0.4185926E-03 -0.2878964E-03
  0.2184339E+01 -0.1208524E+01 -0.8408361E+00   0.9999999E+00 -0.4185926E-03 -0.2878964E-03
  0.2185092E+01  0.1205965E+01 -0.1735830E+01   0.9999999E+00 -0.4185926E-03 -0.2878964E-03
  0.2185092E+01  0.1206065E+01 -0.1735760E+01   0.9999999E+00 -0.4185926E-03 -0.2878964E-03
  0.2185833E+01  0.1206695E+01  0.8395780E+00   0.9999999E+00 -0.4185926E-03 -0.2878964E-03
 WIGNER-SEITZ-PRIMCELL_END
 WIGNER-SEITZ-CONVCELL
           6
 -0.2184339E+01  0.1208524E+01  0.8408361E+00  -0.9999999E+00  0.4185926E-03  0.2878964E-03
 -0.2185080E+01  0.1207895E+01 -0.1734502E+01  -0.9999999E+00  0.4185926E-03  0.2878964E-03
 -0.2185080E+01  0.1207795E+01 -0.1734572E+01  -0.9999999E+00  0.4185926E-03  0.2878964E-03
 -0.2185833E+01 -0.1206695E+01 -0.8395780E+00  -0.9999999E+00  0.4185926E-03  0.2878964E-03
 -0.2185092E+01 -0.1206065E+01  0.1735760E+01  -0.9999999E+00  0.4185926E-03  0.2878964E-03
 -0.2185092E+01 -0.1205965E+01  0.1735830E+01  -0.9999999E+00  0.4185926E-03  0.2878964E-03
           6
 -0.2185069E+01 -0.1205979E+01  0.1735849E+01  -0.4832300E+00  0.3044248E+00  0.8208619E+00
  0.1415773E+00  0.7837242E-01  0.2629198E+01  -0.4832300E+00  0.3044248E+00  0.8208619E+00
  0.1423303E+00  0.2492862E+01  0.1734204E+01  -0.4832300E+00  0.3044248E+00  0.8208619E+00
  0.1423077E+00  0.2492876E+01  0.1734186E+01  -0.4832300E+00  0.3044248E+00  0.8208619E+00
 -0.2184339E+01  0.1208524E+01  0.8408361E+00  -0.4832300E+00  0.3044248E+00  0.8208619E+00
 -0.2185092E+01 -0.1205965E+01  0.1735830E+01  -0.4832300E+00  0.3044248E+00  0.8208619E+00
           6
 -0.2185833E+01 -0.1206695E+01 -0.8395780E+00  -0.5325570E+00 -0.8463941E+00  0.3602954E-03
 -0.1423303E+00 -0.2492862E+01 -0.1734204E+01  -0.5325570E+00 -0.8463941E+00  0.3602954E-03
 -0.1423077E+00 -0.2492876E+01 -0.1734186E+01  -0.5325570E+00 -0.8463941E+00  0.3602954E-03
 -0.1415660E+00 -0.2492246E+01  0.8411525E+00  -0.5325570E+00 -0.8463941E+00  0.3602954E-03
 -0.2185069E+01 -0.1206080E+01  0.1735779E+01  -0.5325570E+00 -0.8463941E+00  0.3602954E-03
 -0.2185092E+01 -0.1206065E+01  0.1735760E+01  -0.5325570E+00 -0.8463941E+00  0.3602954E-03
           6
  0.1415773E+00  0.7837242E-01  0.2629198E+01   0.2666714E-05 -0.5710193E+00  0.8209366E+00
 -0.2185069E+01 -0.1205979E+01  0.1735849E+01   0.2666714E-05 -0.5710193E+00  0.8209366E+00
 -0.2185069E+01 -0.1206080E+01  0.1735779E+01   0.2666714E-05 -0.5710193E+00  0.8209366E+00
 -0.1415660E+00 -0.2492246E+01  0.8411525E+00   0.2666714E-05 -0.5710193E+00  0.8209366E+00
  0.2185080E+01 -0.1207895E+01  0.1734502E+01   0.2666714E-05 -0.5710193E+00  0.8209366E+00
  0.2185080E+01 -0.1207795E+01  0.1734572E+01   0.2666714E-05 -0.5710193E+00  0.8209366E+00
           4
  0.1423077E+00  0.2492876E+01  0.1734186E+01  -0.4832529E+00  0.8754808E+00 -0.7485434E-04
  0.1415660E+00  0.2492246E+01 -0.8411525E+00  -0.4832529E+00  0.8754808E+00 -0.7485434E-04
 -0.2185080E+01  0.1207895E+01 -0.1734502E+01  -0.4832529E+00  0.8754808E+00 -0.7485434E-04
 -0.2184339E+01  0.1208524E+01  0.8408361E+00  -0.4832529E+00  0.8754808E+00 -0.7485434E-04
           6
  0.2185069E+01  0.1206080E+01 -0.1735779E+01  -0.2666707E-05  0.5710193E+00 -0.8209366E+00
  0.2185069E+01  0.1205979E+01 -0.1735849E+01  -0.2666707E-05  0.5710193E+00 -0.8209366E+00
 -0.1415773E+00 -0.7837242E-01 -0.2629198E+01  -0.2666707E-05  0.5710193E+00 -0.8209366E+00
 -0.2185080E+01  0.1207795E+01 -0.1734572E+01  -0.2666707E-05  0.5710193E+00 -0.8209366E+00
 -0.2185080E+01  0.1207895E+01 -0.1734502E+01  -0.2666707E-05  0.5710193E+00 -0.8209366E+00
  0.1415660E+00  0.2492246E+01 -0.8411525E+00  -0.2666707E-05  0.5710193E+00 -0.8209366E+00
           4
 -0.2185833E+01 -0.1206695E+01 -0.8395780E+00  -0.5325360E+00 -0.2940369E+00 -0.7936925E+00
 -0.2185080E+01  0.1207795E+01 -0.1734572E+01  -0.5325360E+00 -0.2940369E+00 -0.7936925E+00
 -0.1415773E+00 -0.7837242E-01 -0.2629198E+01  -0.5325360E+00 -0.2940369E+00 -0.7936925E+00
 -0.1423303E+00 -0.2492862E+01 -0.1734204E+01  -0.5325360E+00 -0.2940369E+00 -0.7936925E+00
           6
  0.1423077E+00  0.2492876E+01  0.1734186E+01   0.5325570E+00  0.8463941E+00 -0.3602955E-03
  0.1423303E+00  0.2492862E+01  0.1734204E+01   0.5325570E+00  0.8463941E+00 -0.3602955E-03
  0.2185833E+01  0.1206695E+01  0.8395780E+00   0.5325570E+00  0.8463941E+00 -0.3602955E-03
  0.2185092E+01  0.1206065E+01 -0.1735760E+01   0.5325570E+00  0.8463941E+00 -0.3602955E-03
  0.2185069E+01  0.1206080E+01 -0.1735779E+01   0.5325570E+00  0.8463941E+00 -0.3602955E-03
  0.1415660E+00  0.2492246E+01 -0.8411525E+00   0.5325570E+00  0.8463941E+00 -0.3602955E-03
           4
  0.2185080E+01 -0.1207795E+01  0.1734572E+01   0.5325360E+00  0.2940369E+00  0.7936925E+00
  0.2185833E+01  0.1206695E+01  0.8395780E+00   0.5325360E+00  0.2940369E+00  0.7936925E+00
  0.1423303E+00  0.2492862E+01  0.1734204E+01   0.5325360E+00  0.2940369E+00  0.7936925E+00
  0.1415773E+00  0.7837242E-01  0.2629198E+01   0.5325360E+00  0.2940369E+00  0.7936925E+00
           4
 -0.1415660E+00 -0.2492246E+01  0.8411525E+00   0.4832529E+00 -0.8754808E+00  0.7485434E-04
 -0.1423077E+00 -0.2492876E+01 -0.1734186E+01   0.4832529E+00 -0.8754808E+00  0.7485434E-04
  0.2184339E+01 -0.1208524E+01 -0.8408361E+00   0.4832529E+00 -0.8754808E+00  0.7485434E-04
  0.2185080E+01 -0.1207895E+01  0.1734502E+01   0.4832529E+00 -0.8754808E+00  0.7485434E-04
           6
 -0.1423303E+00 -0.2492862E+01 -0.1734204E+01   0.4832300E+00 -0.3044248E+00 -0.8208619E+00
 -0.1415773E+00 -0.7837242E-01 -0.2629198E+01   0.4832300E+00 -0.3044248E+00 -0.8208619E+00
  0.2185069E+01  0.1205979E+01 -0.1735849E+01   0.4832300E+00 -0.3044248E+00 -0.8208619E+00
  0.2185092E+01  0.1205965E+01 -0.1735830E+01   0.4832300E+00 -0.3044248E+00 -0.8208619E+00
  0.2184339E+01 -0.1208524E+01 -0.8408361E+00   0.4832300E+00 -0.3044248E+00 -0.8208619E+00
 -0.1423077E+00 -0.2492876E+01 -0.1734186E+01   0.4832300E+00 -0.3044248E+00 -0.8208619E+00
           6
  0.2185080E+01 -0.1207795E+01  0.1734572E+01   0.9999999E+00 -0.4185926E-03 -0.2878964E-03
  0.2185080E+01 -0.1207895E+01  0.1734502E+01   0.9999999E+00 -0.4185926E-03 -0.2878964E-03
  0.2184339E+01 -0.1208524E+01 -0.8408361E+00   0.9999999E+00 -0.4185926E-03 -0.2878964E-03
  0.2185092E+01  0.1205965E+01 -0.1735830E+01   0.9999999E+00 -0.4185926E-03 -0.2878964E-03
  0.2185092E+01  0.1206065E+01 -0.1735760E+01   0.9999999E+00 -0.4185926E-03 -0.2878964E-03
  0.2185833E+01  0.1206695E+01  0.8395780E+00   0.9999999E+00 -0.4185926E-03 -0.2878964E-03
 WIGNER-SEITZ-CONVCELL_END
 BRILLOUIN-ZONE-PRIMCELL
           6
 -0.1733925E+00  0.4360244E-01 -0.4395559E-01  -0.8298389E+00 -0.4580864E+00 -0.3186287E+00
 -0.1144560E+00  0.6473729E-02 -0.1440708E+00  -0.8298389E+00 -0.4580864E+00 -0.3186287E+00
 -0.5551001E-01 -0.1003153E+00 -0.1440617E+00  -0.8298389E+00 -0.4580864E+00 -0.3186287E+00
 -0.5550968E-01 -0.1699607E+00 -0.4393473E-01  -0.8298389E+00 -0.4580864E+00 -0.3186287E+00
 -0.1144461E+00 -0.1328320E+00  0.5618047E-01  -0.8298389E+00 -0.4580864E+00 -0.3186287E+00
 -0.1733921E+00 -0.2604290E-01  0.5617134E-01  -0.8298389E+00 -0.4580864E+00 -0.3186287E+00
           4
 -0.5542700E-01 -0.1002449E+00  0.1441426E+00  -0.6948845E+00 -0.3835143E+00  0.6083192E+00
 -0.1143730E+00  0.6544187E-02  0.1441335E+00  -0.6948845E+00 -0.3835143E+00  0.6083192E+00
 -0.1733921E+00 -0.2604290E-01  0.5617134E-01  -0.6948845E+00 -0.3835143E+00  0.6083192E+00
 -0.1144461E+00 -0.1328320E+00  0.5618047E-01  -0.6948845E+00 -0.3835143E+00  0.6083192E+00
           6
 -0.5534272E-01  0.1700071E+00  0.4396665E-01  -0.7936017E+00  0.4994875E+00  0.3474314E+00
 -0.1143618E+00  0.1374200E+00 -0.4399552E-01  -0.7936017E+00  0.4994875E+00  0.3474314E+00
 -0.1733925E+00  0.4360244E-01 -0.4395559E-01  -0.7936017E+00  0.4994875E+00  0.3474314E+00
 -0.1733921E+00 -0.2604290E-01  0.5617134E-01  -0.7936017E+00  0.4994875E+00  0.3474314E+00
 -0.1143730E+00  0.6544187E-02  0.1441335E+00  -0.7936017E+00  0.4994875E+00  0.3474314E+00
 -0.5534239E-01  0.1003617E+00  0.1440936E+00  -0.7936017E+00  0.4994875E+00  0.3474314E+00
           6
  0.5542540E-01 -0.1002913E+00  0.1441107E+00  -0.2924325E-03 -0.9376553E+00  0.3475666E+00
 -0.5542700E-01 -0.1002449E+00  0.1441426E+00  -0.2924325E-03 -0.9376553E+00  0.3475666E+00
 -0.1144461E+00 -0.1328320E+00  0.5618047E-01  -0.2924325E-03 -0.9376553E+00  0.3475666E+00
 -0.5550968E-01 -0.1699607E+00 -0.4393473E-01  -0.2924325E-03 -0.9376553E+00  0.3475666E+00
  0.5534272E-01 -0.1700071E+00 -0.4396665E-01  -0.2924325E-03 -0.9376553E+00  0.3475666E+00
  0.1143618E+00 -0.1374200E+00  0.4399552E-01  -0.2924325E-03 -0.9376553E+00  0.3475666E+00
           4
 -0.1143618E+00  0.1374200E+00 -0.4399552E-01  -0.6948824E+00  0.4369816E+00 -0.5711266E+00
 -0.5542540E-01  0.1002913E+00 -0.1441107E+00  -0.6948824E+00  0.4369816E+00 -0.5711266E+00
 -0.1144560E+00  0.6473729E-02 -0.1440708E+00  -0.6948824E+00  0.4369816E+00 -0.5711266E+00
 -0.1733925E+00  0.4360244E-01 -0.4395559E-01  -0.6948824E+00  0.4369816E+00 -0.5711266E+00
           6
 -0.5542540E-01  0.1002913E+00 -0.1441107E+00  -0.2879988E-03 -0.2444720E-03 -0.9999999E+00
  0.5542700E-01  0.1002449E+00 -0.1441426E+00  -0.2879988E-03 -0.2444720E-03 -0.9999999E+00
  0.1143730E+00 -0.6544187E-02 -0.1441335E+00  -0.2879988E-03 -0.2444720E-03 -0.9999999E+00
  0.5534239E-01 -0.1003617E+00 -0.1440936E+00  -0.2879988E-03 -0.2444720E-03 -0.9999999E+00
 -0.5551001E-01 -0.1003153E+00 -0.1440617E+00  -0.2879988E-03 -0.2444720E-03 -0.9999999E+00
 -0.1144560E+00  0.6473729E-02 -0.1440708E+00  -0.2879988E-03 -0.2444720E-03 -0.9999999E+00
           4
 -0.5550968E-01 -0.1699607E+00 -0.4393473E-01  -0.5080324E-03 -0.8209365E+00 -0.5710193E+00
 -0.5551001E-01 -0.1003153E+00 -0.1440617E+00  -0.5080324E-03 -0.8209365E+00 -0.5710193E+00
  0.5534239E-01 -0.1003617E+00 -0.1440936E+00  -0.5080324E-03 -0.8209365E+00 -0.5710193E+00
  0.5534272E-01 -0.1700071E+00 -0.4396665E-01  -0.5080324E-03 -0.8209365E+00 -0.5710193E+00
           6
 -0.1143730E+00  0.6544187E-02  0.1441335E+00   0.2879988E-03  0.2444720E-03  0.9999999E+00
 -0.5542700E-01 -0.1002449E+00  0.1441426E+00   0.2879988E-03  0.2444720E-03  0.9999999E+00
  0.5542540E-01 -0.1002913E+00  0.1441107E+00   0.2879988E-03  0.2444720E-03  0.9999999E+00
  0.1144560E+00 -0.6473729E-02  0.1440708E+00   0.2879988E-03  0.2444720E-03  0.9999999E+00
  0.5551001E-01  0.1003153E+00  0.1440617E+00   0.2879988E-03  0.2444720E-03  0.9999999E+00
 -0.5534239E-01  0.1003617E+00  0.1440936E+00   0.2879988E-03  0.2444720E-03  0.9999999E+00
           6
  0.1144461E+00  0.1328320E+00 -0.5618047E-01   0.2924325E-03  0.9376553E+00 -0.3475666E+00
  0.5542700E-01  0.1002449E+00 -0.1441426E+00   0.2924325E-03  0.9376553E+00 -0.3475666E+00
 -0.5542540E-01  0.1002913E+00 -0.1441107E+00   0.2924325E-03  0.9376553E+00 -0.3475666E+00
 -0.1143618E+00  0.1374200E+00 -0.4399552E-01   0.2924325E-03  0.9376553E+00 -0.3475666E+00
 -0.5534272E-01  0.1700071E+00  0.4396665E-01   0.2924325E-03  0.9376553E+00 -0.3475666E+00
  0.5550968E-01  0.1699607E+00  0.4393473E-01   0.2924325E-03  0.9376553E+00 -0.3475666E+00
           4
  0.5551001E-01  0.1003153E+00  0.1440617E+00   0.5080324E-03  0.8209365E+00  0.5710193E+00
  0.5550968E-01  0.1699607E+00  0.4393473E-01   0.5080324E-03  0.8209365E+00  0.5710193E+00
 -0.5534272E-01  0.1700071E+00  0.4396665E-01   0.5080324E-03  0.8209365E+00  0.5710193E+00
 -0.5534239E-01  0.1003617E+00  0.1440936E+00   0.5080324E-03  0.8209365E+00  0.5710193E+00
           6
  0.1733925E+00 -0.4360244E-01  0.4395559E-01   0.7936017E+00 -0.4994875E+00 -0.3474314E+00
  0.1143618E+00 -0.1374200E+00  0.4399552E-01   0.7936017E+00 -0.4994875E+00 -0.3474314E+00
  0.5534272E-01 -0.1700071E+00 -0.4396665E-01   0.7936017E+00 -0.4994875E+00 -0.3474314E+00
  0.5534239E-01 -0.1003617E+00 -0.1440936E+00   0.7936017E+00 -0.4994875E+00 -0.3474314E+00
  0.1143730E+00 -0.6544187E-02 -0.1441335E+00   0.7936017E+00 -0.4994875E+00 -0.3474314E+00
  0.1733921E+00  0.2604290E-01 -0.5617134E-01   0.7936017E+00 -0.4994875E+00 -0.3474314E+00
           4
  0.5542540E-01 -0.1002913E+00  0.1441107E+00   0.6948824E+00 -0.4369816E+00  0.5711266E+00
  0.1143618E+00 -0.1374200E+00  0.4399552E-01   0.6948824E+00 -0.4369816E+00  0.5711266E+00
  0.1733925E+00 -0.4360244E-01  0.4395559E-01   0.6948824E+00 -0.4369816E+00  0.5711266E+00
  0.1144560E+00 -0.6473729E-02  0.1440708E+00   0.6948824E+00 -0.4369816E+00  0.5711266E+00
           4
  0.1143730E+00 -0.6544187E-02 -0.1441335E+00   0.6948845E+00  0.3835143E+00 -0.6083192E+00
  0.5542700E-01  0.1002449E+00 -0.1441426E+00   0.6948845E+00  0.3835143E+00 -0.6083192E+00
  0.1144461E+00  0.1328320E+00 -0.5618047E-01   0.6948845E+00  0.3835143E+00 -0.6083192E+00
  0.1733921E+00  0.2604290E-01 -0.5617134E-01   0.6948845E+00  0.3835143E+00 -0.6083192E+00
           6
  0.5551001E-01  0.1003153E+00  0.1440617E+00   0.8298389E+00  0.4580864E+00  0.3186287E+00
  0.1144560E+00 -0.6473729E-02  0.1440708E+00   0.8298389E+00  0.4580864E+00  0.3186287E+00
  0.1733925E+00 -0.4360244E-01  0.4395559E-01   0.8298389E+00  0.4580864E+00  0.3186287E+00
  0.1733921E+00  0.2604290E-01 -0.5617134E-01   0.8298389E+00  0.4580864E+00  0.3186287E+00
  0.1144461E+00  0.1328320E+00 -0.5618047E-01   0.8298389E+00  0.4580864E+00  0.3186287E+00
  0.5550968E-01  0.1699607E+00  0.4393473E-01   0.8298389E+00  0.4580864E+00  0.3186287E+00
 BRILLOUIN-ZONE-PRIMCELL_END
 BRILLOUIN-ZONE-CONVCELL
           6
 -0.1733925E+00  0.4360244E-01 -0.4395559E-01  -0.8298389E+00 -0.4580864E+00 -0.3186287E+00
 -0.1144560E+00  0.6473729E-02 -0.1440708E+00  -0.8298389E+00 -0.4580864E+00 -0.3186287E+00
 -0.5551001E-01 -0.1003153E+00 -0.1440617E+00  -0.8298389E+00 -0.4580864E+00 -0.3186287E+00
 -0.5550968E-01 -0.1699607E+00 -0.4393473E-01  -0.8298389E+00 -0.4580864E+00 -0.3186287E+00
 -0.1144461E+00 -0.1328320E+00  0.5618047E-01  -0.8298389E+00 -0.4580864E+00 -0.3186287E+00
 -0.1733921E+00 -0.2604290E-01  0.5617134E-01  -0.8298389E+00 -0.4580864E+00 -0.3186287E+00
           4
 -0.5542700E-01 -0.1002449E+00  0.1441426E+00  -0.6948845E+00 -0.3835143E+00  0.6083192E+00
 -0.1143730E+00  0.6544187E-02  0.1441335E+00  -0.6948845E+00 -0.3835143E+00  0.6083192E+00
 -0.1733921E+00 -0.2604290E-01  0.5617134E-01  -0.6948845E+00 -0.3835143E+00  0.6083192E+00
 -0.1144461E+00 -0.1328320E+00  0.5618047E-01  -0.6948845E+00 -0.3835143E+00  0.6083192E+00
           6
 -0.5534272E-01  0.1700071E+00  0.4396665E-01  -0.7936017E+00  0.4994875E+00  0.3474314E+00
 -0.1143618E+00  0.1374200E+00 -0.4399552E-01  -0.7936017E+00  0.4994875E+00  0.3474314E+00
 -0.1733925E+00  0.4360244E-01 -0.4395559E-01  -0.7936017E+00  0.4994875E+00  0.3474314E+00
 -0.1733921E+00 -0.2604290E-01  0.5617134E-01  -0.7936017E+00  0.4994875E+00  0.3474314E+00
 -0.1143730E+00  0.6544187E-02  0.1441335E+00  -0.7936017E+00  0.4994875E+00  0.3474314E+00
 -0.5534239E-01  0.1003617E+00  0.1440936E+00  -0.7936017E+00  0.4994875E+00  0.3474314E+00
           6
  0.5542540E-01 -0.1002913E+00  0.1441107E+00  -0.2924325E-03 -0.9376553E+00  0.3475666E+00
 -0.5542700E-01 -0.1002449E+00  0.1441426E+00  -0.2924325E-03 -0.9376553E+00  0.3475666E+00
 -0.1144461E+00 -0.1328320E+00  0.5618047E-01  -0.2924325E-03 -0.9376553E+00  0.3475666E+00
 -0.5550968E-01 -0.1699607E+00 -0.4393473E-01  -0.2924325E-03 -0.9376553E+00  0.3475666E+00
  0.5534272E-01 -0.1700071E+00 -0.4396665E-01  -0.2924325E-03 -0.9376553E+00  0.3475666E+00
  0.1143618E+00 -0.1374200E+00  0.4399552E-01  -0.2924325E-03 -0.9376553E+00  0.3475666E+00
           4
 -0.1143618E+00  0.1374200E+00 -0.4399552E-01  -0.6948824E+00  0.4369816E+00 -0.5711266E+00
 -0.5542540E-01  0.1002913E+00 -0.1441107E+00  -0.6948824E+00  0.4369816E+00 -0.5711266E+00
 -0.1144560E+00  0.6473729E-02 -0.1440708E+00  -0.6948824E+00  0.4369816E+00 -0.5711266E+00
 -0.1733925E+00  0.4360244E-01 -0.4395559E-01  -0.6948824E+00  0.4369816E+00 -0.5711266E+00
           6
 -0.5542540E-01  0.1002913E+00 -0.1441107E+00  -0.2879988E-03 -0.2444720E-03 -0.9999999E+00
  0.5542700E-01  0.1002449E+00 -0.1441426E+00  -0.2879988E-03 -0.2444720E-03 -0.9999999E+00
  0.1143730E+00 -0.6544187E-02 -0.1441335E+00  -0.2879988E-03 -0.2444720E-03 -0.9999999E+00
  0.5534239E-01 -0.1003617E+00 -0.1440936E+00  -0.2879988E-03 -0.2444720E-03 -0.9999999E+00
 -0.5551001E-01 -0.1003153E+00 -0.1440617E+00  -0.2879988E-03 -0.2444720E-03 -0.9999999E+00
 -0.1144560E+00  0.6473729E-02 -0.1440708E+00  -0.2879988E-03 -0.2444720E-03 -0.9999999E+00
           4
 -0.5550968E-01 -0.1699607E+00 -0.4393473E-01  -0.5080324E-03 -0.8209365E+00 -0.5710193E+00
 -0.5551001E-01 -0.1003153E+00 -0.1440617E+00  -0.5080324E-03 -0.8209365E+00 -0.5710193E+00
  0.5534239E-01 -0.1003617E+00 -0.1440936E+00  -0.5080324E-03 -0.8209365E+00 -0.5710193E+00
  0.5534272E-01 -0.1700071E+00 -0.4396665E-01  -0.5080324E-03 -0.8209365E+00 -0.5710193E+00
           6
 -0.1143730E+00  0.6544187E-02  0.1441335E+00   0.2879988E-03  0.2444720E-03  0.9999999E+00
 -0.5542700E-01 -0.1002449E+00  0.1441426E+00   0.2879988E-03  0.2444720E-03  0.9999999E+00
  0.5542540E-01 -0.1002913E+00  0.1441107E+00   0.2879988E-03  0.2444720E-03  0.9999999E+00
  0.1144560E+00 -0.6473729E-02  0.1440708E+00   0.2879988E-03  0.2444720E-03  0.9999999E+00
  0.5551001E-01  0.1003153E+00  0.1440617E+00   0.2879988E-03  0.2444720E-03  0.9999999E+00
 -0.5534239E-01  0.1003617E+00  0.1440936E+00   0.2879988E-03  0.2444720E-03  0.9999999E+00
           6
  0.1144461E+00  0.1328320E+00 -0.5618047E-01   0.2924325E-03  0.9376553E+00 -0.3475666E+00
  0.5542700E-01  0.1002449E+00 -0.1441426E+00   0.2924325E-03  0.9376553E+00 -0.3475666E+00
 -0.5542540E-01  0.1002913E+00 -0.1441107E+00   0.2924325E-03  0.9376553E+00 -0.3475666E+00
 -0.1143618E+00  0.1374200E+00 -0.4399552E-01   0.2924325E-03  0.9376553E+00 -0.3475666E+00
 -0.5534272E-01  0.1700071E+00  0.4396665E-01   0.2924325E-03  0.9376553E+00 -0.3475666E+00
  0.5550968E-01  0.1699607E+00  0.4393473E-01   0.2924325E-03  0.9376553E+00 -0.3475666E+00
           4
  0.5551001E-01  0.1003153E+00  0.1440617E+00   0.5080324E-03  0.8209365E+00  0.5710193E+00
  0.5550968E-01  0.1699607E+00  0.4393473E-01   0.5080324E-03  0.8209365E+00  0.5710193E+00
 -0.5534272E-01  0.1700071E+00  0.4396665E-01   0.5080324E-03  0.8209365E+00  0.5710193E+00
 -0.5534239E-01  0.1003617E+00  0.1440936E+00   0.5080324E-03  0.8209365E+00  0.5710193E+00
           6
  0.1733925E+00 -0.4360244E-01  0.4395559E-01   0.7936017E+00 -0.4994875E+00 -0.3474314E+00
  0.1143618E+00 -0.1374200E+00  0.4399552E-01   0.7936017E+00 -0.4994875E+00 -0.3474314E+00
  0.5534272E-01 -0.1700071E+00 -0.4396665E-01   0.7936017E+00 -0.4994875E+00 -0.3474314E+00
  0.5534239E-01 -0.1003617E+00 -0.1440936E+00   0.7936017E+00 -0.4994875E+00 -0.3474314E+00
  0.1143730E+00 -0.6544187E-02 -0.1441335E+00   0.7936017E+00 -0.4994875E+00 -0.3474314E+00
  0.1733921E+00  0.2604290E-01 -0.5617134E-01   0.7936017E+00 -0.4994875E+00 -0.3474314E+00
           4
  0.5542540E-01 -0.1002913E+00  0.1441107E+00   0.6948824E+00 -0.4369816E+00  0.5711266E+00
  0.1143618E+00 -0.1374200E+00  0.4399552E-01   0.6948824E+00 -0.4369816E+00  0.5711266E+00
  0.1733925E+00 -0.4360244E-01  0.4395559E-01   0.6948824E+00 -0.4369816E+00  0.5711266E+00
  0.1144560E+00 -0.6473729E-02  0.1440708E+00   0.6948824E+00 -0.4369816E+00  0.5711266E+00
           4
  0.1143730E+00 -0.6544187E-02 -0.1441335E+00   0.6948845E+00  0.3835143E+00 -0.6083192E+00
  0.5542700E-01  0.1002449E+00 -0.1441426E+00   0.6948845E+00  0.3835143E+00 -0.6083192E+00
  0.1144461E+00  0.1328320E+00 -0.5618047E-01   0.6948845E+00  0.3835143E+00 -0.6083192E+00
  0.1733921E+00  0.2604290E-01 -0.5617134E-01   0.6948845E+00  0.3835143E+00 -0.6083192E+00
           6
  0.5551001E-01  0.1003153E+00  0.1440617E+00   0.8298389E+00  0.4580864E+00  0.3186287E+00
  0.1144560E+00 -0.6473729E-02  0.1440708E+00   0.8298389E+00  0.4580864E+00  0.3186287E+00
  0.1733925E+00 -0.4360244E-01  0.4395559E-01   0.8298389E+00  0.4580864E+00  0.3186287E+00
  0.1733921E+00  0.2604290E-01 -0.5617134E-01   0.8298389E+00  0.4580864E+00  0.3186287E+00
  0.1144461E+00  0.1328320E+00 -0.5618047E-01   0.8298389E+00  0.4580864E+00  0.3186287E+00
  0.5550968E-01  0.1699607E+00  0.4393473E-01   0.8298389E+00  0.4580864E+00  0.3186287E+00
 BRILLOUIN-ZONE-CONVCELL_END
 ATOMS
   32    0.0418083330    0.0231788790    0.0161461670
   52    4.2811579280    2.3632850830    1.6440408700
 FRAMES
1      0.0000000000    0.0000000000    0.0000000000      4.3701718420   -0.0018293220   -0.0012581570
1      0.0000000000    0.0000000000    0.0000000000      2.3273993300    3.6989414330   -0.0015745760
1      0.0000000000    0.0000000000    0.0000000000      2.3274106030    1.2850673610    3.4687764500
1      2.3274106030    1.2850673610    3.4687764500      6.6975824450    1.2832380390    3.4675182930
1      2.3274106030    1.2850673610    3.4687764500      4.6548099330    4.9840087940    3.4672018740
1      2.3273993300    3.6989414330   -0.0015745760      6.6975711720    3.6971121110   -0.0028327330
1      2.3273993300    3.6989414330   -0.0015745760      4.6548099330    4.9840087940    3.4672018740
1      4.6548099330    4.9840087940    3.4672018740      9.0249817750    4.9821794720    3.4659437170
1      4.3701718420   -0.0018293220   -0.0012581570      6.6975711720    3.6971121110   -0.0028327330
1      4.3701718420   -0.0018293220   -0.0012581570      6.6975824450    1.2832380390    3.4675182930
1      6.6975824450    1.2832380390    3.4675182930      9.0249817750    4.9821794720    3.4659437170
1      6.6975711720    3.6971121110   -0.0028327330      9.0249817750    4.9821794720    3.4659437170
